C:\WORKS_2\Programs\OpenFOAM>icoFoam
/*---------------------------------------------------------------------------*\
| =========                 |                                                 |
| \\      /  F ield         | OpenFOAM: The Open Source CFD Toolbox           |
|  \\    /   O peration     | Version:  2.1.x                                 |
|   \\  /    A nd           | Web:      www.OpenFOAM.org                      |
|    \\/     M anipulation  |                                                 |
\*---------------------------------------------------------------------------*/
/*  Windows port by Symscape (www.symscape.com)                              *\
\*---------------------------------------------------------------------------*/
Build  : 2.1.x-d8c2d781a321
Exec   : icoFoam
Date   : Apr 10 2018
Time   : 12:33:46
Host   : "IWABUCHIKEN-PC"
PID    : 2408
Case   : C:/WORKS_2/Programs/OpenFOAM
nProcs : 1
SigFpe : Enabling floating point exception trapping (FOAM_SIGFPE).
fileModificationChecking : Monitoring run-time modified files using timeStampMas
ter
allowSystemOperations : Disallowing user-supplied system call operations

// * * * * * * * * * * * * * * * * * * * * * * * * * * * * * * * * * * * * * //
Create time



--> FOAM FATAL IO ERROR:
cannot find file

file: C:/WORKS_2/Programs/OpenFOAM/system/controlDict at line 0.

    From function regIOobject::readStream()
    in file db/regIOobject/regIOobjectRead.C at line 73.

FOAM exiting


C:\WORKS_2\Programs\OpenFOAM>